! PBE def2-TZVP TightSCF EnGrad 
%pal nprocs 8 end 
*xyz 0 1 
C   3.2329406642916143 1.963063165248208 -0.06042900579323485
N   2.4011030782262113 0.8341576061207372 0.10951583458760626
C   1.1114513511568425 0.8147926213220293 -0.22379878992846675
O   0.5734773732255571 1.6601016909602675 -0.9471516424850658
C   0.3030463527692228 -0.25475390355021355 0.3435342379570184
C   0.9507090511314417 -1.687391485438238 0.33703234858277786
N   -0.9037775609872591 -0.3826578679428958 -0.4066655148493564
C   -2.07449381683962 -0.7835702742743227 0.20612491476188732
C   -3.327231655867818 -0.5648368942746177 -0.5560387672896546
O   -2.0388413719614307 -1.3488099443323363 1.3061563862497916
H   3.2150858729014358 2.313999827827406 -1.1033244665335518
H   2.9199252141095413 2.8573471281941933 0.5477543757186449
H   4.280705671481325 1.6965585423057519 0.166783207343343
H   2.6128728506497976 0.21030681062420584 0.9808405009118076
H   -0.0005074623044411628 -0.1330445581422158 1.4059777600921461
H   1.1668871625588872 -1.9489840077132297 -0.6796705249364973
H   1.8133192863040446 -1.8024504211370185 1.0289348020679945
H   0.22624600842250409 -2.419178759179462 0.6924853025048141
H   -0.8982930958853336 0.15290297247043683 -1.243659169039562
H   -3.9714054626350888 -1.4691140764179687 -0.47871510380330934
H   -3.140571087411871 -0.6510068467793146 -1.6061215710224588
H   -3.972551787291007 0.21922632161115144 -0.2288030312727066
*
