! PBE def2-TZVP TightSCF EnGrad 
%pal nprocs 8 end 
*xyz 0 1 
C   -2.295121201140459 2.7422935628538934 -0.5668975802666153
N   -1.3360725159718003 1.6711150844677845 -0.8331855458518629
C   -0.3492422545483897 1.3752767728155058 0.07222061503417082
O   -0.22288749063767382 1.9730731665273373 1.1337137601425344
C   0.6460706522833621 0.2377056752847951 -0.2977825700118821
C   1.3732636460797676 0.49385012508525855 -1.6489970554122317
N   0.07329671794788475 -1.0646151587061452 -0.13354992502719992
C   0.6782839776754518 -2.0856546909338496 0.5464369578659422
C   -0.09431017640819614 -3.391426739932018 0.6737806965864249
O   1.7009879917925186 -1.9377862401988584 1.1923805429425804
H   -1.779314917996862 3.735541549315105 -0.4234821284847151
H   -3.035184452563713 2.8302673865748367 -1.3747264282718323
H   -2.9155543994863127 2.495168476770214 0.2883692747680271
H   -1.3331971655413581 1.1320123414170742 -1.6963583870302874
H   1.3914930027799641 0.36935871792042024 0.5439100238079522
H   0.6608289261273389 0.5360689391456869 -2.4525552434348907
H   2.031548429342542 1.4080594925156442 -1.6986277940618975
H   1.9900626516921913 -0.4167546057891384 -1.8377726532577252
H   -0.7998780388336054 -1.2044390209091815 -0.6159868069735043
H   -1.0432126583964967 -3.089864762799547 1.1750478330651333
H   0.48366694605681404 -4.1830121916564345 1.132965235778463
H   -0.29525627655352704 -3.7525854485431642 -0.3380389498601222
*
