! PBE def2-TZVP TightSCF EnGrad 
%pal nprocs 8 end 
*xyz 0 1 
C   3.455805177497255 1.6777870382754636 0.49309626878713203
N   2.548736514506145 0.5271506446932677 0.32750713275410986
C   1.228101119205429 0.7522007151991084 0.08356331000283458
O   0.7785404738753614 1.824052491630863 -0.25637563341651215
C   0.27899614971924264 -0.42773884008633106 0.29042319363285996
C   0.6319295277484901 -1.59373419424376 -0.6081112235501595
N   -1.0110371606790587 0.025778791353790954 -0.10661693881142713
C   -2.166355741830729 -0.7001237243351054 0.016075360662351764
C   -3.3503091427049556 -0.027295204454558724 -0.5718682506167841
O   -2.139745650130018 -1.8590447385682256 0.5036373540040845
H   3.404871633082847 2.068357059953995 1.4976803470464954
H   4.4484155619640715 1.4411991079072686 0.26865950491213525
H   2.9996649982150534 2.43596035613502 -0.20439525164640346
H   2.7850259614650166 -0.3976631790660495 0.7639214624389514
H   0.09169462614258941 -0.6638922210660649 1.3479179266432166
H   0.5765953577760558 -1.1392788579906616 -1.5990552501206308
H   1.5660979642944177 -2.043656083984922 -0.42289002239156714
H   -0.1832618714907893 -2.364153216764454 -0.5717808317302434
H   -1.059543319432368 0.9455177828016927 -0.41933411370782864
H   -3.642093462282373 -0.4251012224666065 -1.5447464135091176
H   -3.1910496123601924 1.0450759278166084 -0.8011530339810256
H   -4.331400561885677 0.016389444391232577 -0.014869118032739513
*
